# generated using pymatgen
data_CsTaN2
_symmetry_space_group_name_H-M   P1
_cell_length_a   6.28531439
_cell_length_b   6.28531468
_cell_length_c   6.29363021
_cell_angle_alpha   119.95629586
_cell_angle_beta   119.95629753
_cell_angle_gamma   90.00000379
_symmetry_Int_Tables_number   1
_chemical_formula_structural   CsTaN2
_chemical_formula_sum   'Cs2 Ta2 N4'
_cell_volume   176.04066510
_cell_formula_units_Z   2
loop_
 _symmetry_equiv_pos_site_id
 _symmetry_equiv_pos_as_xyz
  1  'x, y, z'
loop_
 _atom_site_type_symbol
 _atom_site_label
 _atom_site_symmetry_multiplicity
 _atom_site_fract_x
 _atom_site_fract_y
 _atom_site_fract_z
 _atom_site_occupancy
  Cs  Cs0  1  0.50000000  0.50000000  0.00000000  1.0
  Cs  Cs1  1  0.75000000  0.25000000  0.50000000  1.0
  Ta  Ta2  1  0.00000000  0.00000000  0.00000000  1.0
  Ta  Ta3  1  0.25000000  0.75000000  0.50000000  1.0
  N  N4  1  0.08141422  0.87500000  0.25000000  1.0
  N  N5  1  0.12500000  0.83141422  0.75000000  1.0
  N  N6  1  0.16858578  0.37500000  0.25000000  1.0
  N  N7  1  0.62500000  0.91858578  0.75000000  1.0
